Circuit: * C:\Users\David Wu\Documents\GitHub\Project-Voice\Hardware\Microphone\Design and simulation\MicAndAmp.asc

Direct Newton iteration for .op point succeeded.

Date: Wed Sep 11 16:03:40 2013
Total elapsed time: 0.108 seconds.

tnom = 27
temp = 27
method = modified trap
totiter = 2046
traniter = 2042
tranpoints = 1022
accept = 1022
rejected = 0
matrix size = 13
fillins = 4
solver = Normal
Matrix Compiler1: 724 個位元組 object code size  0.3/0.2/[0.1]
Matrix Compiler2: off  [0.1]/0.1/0.1


